FoamFile
{
    version     2.0;
    format      ascii;
    class       dictionary;
    location    "system";
    object      fvSchemes;
}
ddtSchemes      { default steadyState; }
gradSchemes     { default Gauss linear; }
divSchemes
{
    default         none;
    div(phi,U)      Gauss upwind;  // linear 대신 upwind
    div(phi,alpha)  Gauss upwind;
    ...
}
laplacianSchemes { default Gauss linear corrected; }
interpolationSchemes { default linear; }
snGradSchemes   { default corrected; }
// ************************************************************************* //
