/*--------------------------------*- C++ -*----------------------------------*\
| =========                 |                                                 |
| \\      /  F ield         | OpenFOAM: The Open Source CFD Toolbox           |
|  \\    /   O peration     | Version:  2312                                  |
|   \\  /    A nd           | Web:      www.OpenFOAM.com                      |
|    \\/     M anipulation  |                                                 |
\*---------------------------------------------------------------------------*/
FoamFile
{
    version     2.0;
    format      ascii;
    class       dictionary;
    location    "system";
    object      fvSchemes;
}
// * * * * * * * * * * * * * * * * * * * * * * * * * * * * * * * * * * * * //

ddtSchemes
{
    default         Euler;
}

gradSchemes
{
    default         Gauss linear;
    grad(U)         Gauss linear;
    grad(alpha.water) Gauss linear;
}

divSchemes
{
    default                                         none;

    // alpha
    div(phi,alpha.water)                            Gauss vanLeer;
    div(phi,alpha)                                  Gauss vanLeer;
    div(phirb,alpha.water)                          Gauss linear;
    div(phirb,alpha)                                Gauss linear;

    // 운동량
    div(rhoPhi,U)                                   Gauss linearUpwind grad(U);

    // k-epsilon 난류
    div(phi,k)                                      Gauss upwind;
    div(phi,epsilon)                                Gauss upwind;
    div(phi,omega)                                  Gauss upwind;
    div(phi,nut)                                    Gauss upwind;
    div(phi,alphat)                                 Gauss upwind;

    // 점성 응력
    div(((rho*nuEff)*dev2(T(grad(U)))))             Gauss linear;
}

laplacianSchemes
{
    default         Gauss linear corrected;
}

interpolationSchemes
{
    default         linear;
}

snGradSchemes
{
    default         corrected;
}

fluxRequired
{
    default         no;
    p_rgh;
    pcorr;
    alpha.water;
}

// ************************************************************************* //
