FoamFile
{
    version     2.0;
    format      ascii;
    class       dictionary;
    location    "system";
    object      controlDict;
}
application     simpleFoam;
startFrom       startTime;
startTime       0;
stopAt          endTime;
endTime         1000;
deltaT          1;
writeControl    timeStep;
writeInterval   100;
purgeWrite      0;
writeFormat     ascii;
writePrecision  6;
writeCompression off;
controlDict:
  version: 2.0
  format: ascii
  class: dictionary
  location: system
  object: controlDict
  application: simpleFoam
  startFrom: startTime
  startTime: 0
  stopAt: endTime
  endTime: 1000
  deltaT: 1
  writeControl: timeStep
  writeInterval: 100
  purgeWrite: 0
  writeFormat: ascii
  writePrecision: 6
  writeCompression: off
fvSchemes:
  version: 2.0
  format: ascii
  class: dictionary
  location: system
  object: fvSchemes
  ddtSchemes:
    default: Euler
  gradSchemes:
    default: Gauss linear
  divSchemes:
    default: none
    div(phi,U): Gauss linearUpwind
  laplacianSchemes:
    default: Gauss linear corrected
  interpolationSchemes:
    default: linear
  snGradSchemes:
    default: corrected
fvSolution:
  version: 2.0
  format: ascii
  class: dictionary
  location: system
  object: fvSolution
  solvers:
    p:
      solver: PCG
      preconditioner: DIC
      tolerance: 1e-06
      relTol: 0.05
    U:
      solver: PBiCG
      preconditioner: DILU
      tolerance: 1e-06
      relTol: 0.05
transportProperties:
  version: 2.0
  format: ascii
  class: dictionary
  location: constant
  object: transportProperties
  transportModel: Newtonian
  nu:
    dimensions: [0, 2, -1, 0, 0, 0, 0]
    value: 1e-06
  rho:
    dimensions: [1, -3, 0, 0, 0, 0, 0]
    value: 900
